/*--------------------------------*- C++ -*----------------------------------*\
   =========                 |
   \\      /  F ield         | OpenFOAM: The Open Source CFD Toolbox
    \\    /   O peration     | Website:  https://openfoam.org
     \\  /    A nd           | Version:  13
      \\/     M anipulation  |
\*---------------------------------------------------------------------------*/
FoamFile
{
    format          ascii;
    class           dictionary;
    object          fvSolution;
}

// * * * * * * * * * * * * * * * * * * * * * * * * * * * * * * * * * * * * * //

solvers
{
    p
    {

    }

    pFinal
    {

    }

    "(U).*"                 //"(U|k|epsilon|omega|R|nuTilda)"
    {

    }
}

PIMPLE
{

}

relaxationFactors
{
    fields
    {

    }

    equations
    {

    }
}

// * * * * * * * * * * * * * * * * * * * * * * * * * * * * * * * * * * * * * //