/*--------------------------------*- C++ -*----------------------------------*\
   =========                 |
   \\      /  F ield         | OpenFOAM: The Open Source CFD Toolbox
    \\    /   O peration     | Website:  https://openfoam.org
     \\  /    A nd           | Version:  13
      \\/     M anipulation  |
\*---------------------------------------------------------------------------*/
FoamFile
{
    format          ascii;
    class           dictionary;
    object          fvSchemes;
}

// * * * * * * * * * * * * * * * * * * * * * * * * * * * * * * * * * * * * * //

ddtSchemes
{
    default         backward;
    //default         steadyState;
}

gradSchemes
{
    default         Gauss linear;
    grad(p)         Gauss linear;
}

divSchemes
{
    default                             none;
    div(phi,U)                          Gauss linear;
    div((nuEff*dev2(T(grad(U)))))       Gauss linear;
}

laplacianSchemes
{
    default         Gauss linear orthogonal;
    //default         Gauss linear limited 1;
    //default         Gauss skewCorrected linear limited 1;
}

interpolationSchemes
{
    default         linear;
    //default         skewCorrected linear;
}

snGradSchemes
{
    default         orthogonal;
    //default         limited 1;
}

// * * * * * * * * * * * * * * * * * * * * * * * * * * * * * * * * * * * * * //